$DATA1 SOURCE='HSPICE' VERSION='C-2009.09-SP1 32-BIT'
.TITLE '*********************************'
 index            nmos_vtl@vth0_n_ pmos_vtl@vth0_p_ nmos_vtl@vth0_ag  
                  pmos_vtl@vth0_ag 2:l@1:l_g        3:l@1:l_g         
                  4:l@1:l_g        delay1           delay2            
                  delay3           delay4           temper            
                  alter#            
    1.0000           0.7256          -0.5219           0.7256         
                    -0.5219         4.603e-08        4.262e-08        
                   4.469e-08        2.580e-11        3.700e-11        
                   1.981e-11        4.285e-11         25.0000         
                     1.0000         
    2.0000           0.7764          -0.5073           0.7764         
                    -0.5073         4.751e-08        4.748e-08        
                   4.263e-08        3.295e-11        3.994e-11        
                   2.035e-11        5.281e-11         25.0000         
                     1.0000         
    3.0000           0.7501          -0.5066           0.7501         
                    -0.5066         4.537e-08        4.535e-08        
                   4.290e-08        2.807e-11        3.830e-11        
                   1.905e-11        4.733e-11         25.0000         
                     1.0000         
    4.0000           0.7415          -0.4751           0.7415         
                    -0.4751         3.966e-08        4.494e-08        
                   4.785e-08        2.465e-11        3.333e-11        
                   1.580e-11        4.915e-11         25.0000         
                     1.0000         
    5.0000           0.6783          -0.5071           0.6783         
                    -0.5071         4.810e-08        4.555e-08        
                   4.062e-08        2.387e-11        3.438e-11        
                   2.045e-11        4.019e-11         25.0000         
                     1.0000         
    6.0000           0.6307          -0.5676           0.6307         
                    -0.5676         4.562e-08        4.681e-08        
                   4.445e-08        2.026e-11        4.053e-11        
                   2.301e-11        3.660e-11         25.0000         
                     1.0000         
    7.0000           0.6832          -0.4377           0.6832         
                    -0.4377         4.440e-08        4.741e-08        
                   4.426e-08        2.356e-11        3.017e-11        
                   1.650e-11        4.433e-11         25.0000         
                     1.0000         
    8.0000           0.6886          -0.4811           0.6886         
                    -0.4811         4.915e-08        4.408e-08        
                   4.323e-08        2.503e-11        3.234e-11        
                   1.925e-11        4.053e-11         25.0000         
                     1.0000         
    9.0000           0.7231          -0.4825           0.7231         
                    -0.4825         4.335e-08        4.590e-08        
                   4.856e-08        2.517e-11        3.496e-11        
                   1.742e-11        4.409e-11         25.0000         
                     1.0000         
   10.0000           0.6214          -0.5363           0.6214         
                    -0.5363         4.505e-08        4.850e-08        
                   4.227e-08        1.997e-11        3.714e-11        
                   2.116e-11        3.649e-11         25.0000         
                     1.0000         
   11.0000           0.7046          -0.4866           0.7046         
                    -0.4866         4.251e-08        4.844e-08        
                   4.643e-08        2.382e-11        3.548e-11        
                   1.754e-11        4.348e-11         25.0000         
                     1.0000         
   12.0000           0.6925          -0.4795           0.6925         
                    -0.4795         4.529e-08        4.404e-08        
                   4.452e-08        2.384e-11        3.180e-11        
                   1.782e-11        4.041e-11         25.0000         
                     1.0000         
   13.0000           0.7671          -0.4810           0.7671         
                    -0.4810         4.411e-08        4.667e-08        
                   4.716e-08        2.941e-11        3.823e-11        
                   1.770e-11        4.958e-11         25.0000         
                     1.0000         
   14.0000           0.7048          -0.4398           0.7048         
                    -0.4398         4.137e-08        4.637e-08        
                   4.569e-08        2.358e-11        2.963e-11        
                   1.555e-11        4.425e-11         25.0000         
                     1.0000         
   15.0000           0.8087          -0.4936           0.8087         
                    -0.4936         4.519e-08        4.465e-08        
                   4.615e-08        3.540e-11        3.889e-11        
                   1.834e-11        5.541e-11         25.0000         
                     1.0000         
   16.0000           0.7184          -0.5329           0.7184         
                    -0.5329         4.497e-08        4.446e-08        
                   4.787e-08        2.497e-11        3.905e-11        
                   2.018e-11        4.344e-11         25.0000         
                     1.0000         
   17.0000           0.8335          -0.4754           0.8335         
                    -0.4754         4.434e-08        4.792e-08        
                   4.313e-08        3.913e-11        4.115e-11        
                   1.769e-11        6.410e-11         25.0000         
                     1.0000         
   18.0000           0.7514          -0.5104           0.7514         
                    -0.5104         4.599e-08        4.577e-08        
                   4.502e-08        2.855e-11        3.924e-11        
                   1.961e-11        4.801e-11         25.0000         
                     1.0000         
   19.0000           0.7702          -0.4474           0.7702         
                    -0.4474         4.596e-08        4.305e-08        
                   4.334e-08        3.124e-11        3.192e-11        
                   1.674e-11        4.856e-11         25.0000         
                     1.0000         
   20.0000           0.6982          -0.5559           0.6982         
                    -0.5559         4.549e-08        4.613e-08        
                   4.496e-08        2.375e-11        4.076e-11        
                   2.199e-11        4.293e-11         25.0000         
                     1.0000         
