$DATA1 SOURCE='HSPICE' VERSION='C-2009.09-SP1 32-BIT'
.TITLE '*********************************'
 index            nmos_vtl@vth0_n_ pmos_vtl@vth0_p_ nmos_vtl@vth0_ag  
                  pmos_vtl@vth0_ag delay1           delay2            
                  delay3           delay4           avgpower          
                  temper           alter#            
    1.0000           0.7381          -0.4810           0.7381         
                    -0.4810         2.974e-11        2.971e-11        
                   1.637e-11        5.059e-11        3.643e-09        
                    25.0000           1.0000         
    2.0000           0.6813          -0.4358           0.6813         
                    -0.4358         2.552e-11        2.481e-11        
                   1.503e-11        4.744e-11        9.571e-09        
                    25.0000           1.0000         
    3.0000           0.7649          -0.5362           0.7649         
                    -0.5362         3.210e-11        3.503e-11        
                   1.856e-11        5.413e-11        1.621e-09        
                    25.0000           1.0000         
    4.0000           0.7513          -0.4929           0.7513         
                    -0.4929         3.084e-11        3.168e-11        
                   1.680e-11        5.185e-11        2.941e-09        
                    25.0000           1.0000         
    5.0000           0.6861          -0.4970           0.6861         
                    -0.4970         2.515e-11        2.918e-11        
                   1.699e-11        4.511e-11        2.900e-09        
                    25.0000           1.0000         
    6.0000           0.7006          -0.4817           0.7006         
                    -0.4817         2.634e-11        2.852e-11        
                   1.643e-11        4.681e-11        3.679e-09        
                    25.0000           1.0000         
    7.0000           0.7415          -0.4751           0.7415         
                    -0.4751         3.015e-11        2.934e-11        
                   1.617e-11        5.106e-11        4.065e-09        
                    25.0000           1.0000         
    8.0000           0.7806          -0.4144           0.7806         
                    -0.4144         3.549e-11        2.601e-11        
                   1.434e-11        6.165e-11        1.572e-08        
                    25.0000           1.0000         
    9.0000           0.7262          -0.4765           0.7262         
                    -0.4765         2.865e-11        2.890e-11        
                   1.622e-11        4.952e-11        3.986e-09        
                    25.0000           1.0000         
   10.0000           0.7553          -0.4018           0.7553         
                    -0.4018         3.270e-11        2.416e-11        
                   1.403e-11        5.680e-11        2.166e-08        
                    25.0000           1.0000         
   11.0000           0.8070          -0.4730           0.8070         
                    -0.4730         3.884e-11        3.182e-11        
                   1.607e-11        6.303e-11        4.151e-09        
                    25.0000           1.0000         
   12.0000           0.7060          -0.4489           0.7060         
                    -0.4489         2.723e-11        2.624e-11        
                   1.537e-11        4.759e-11        7.049e-09        
                    25.0000           1.0000         
   13.0000           0.7194          -0.4736           0.7194         
                    -0.4736         2.807e-11        2.844e-11        
                   1.613e-11        4.893e-11        4.224e-09        
                    25.0000           1.0000         
   14.0000           0.6886          -0.4811           0.6886         
                    -0.4811         2.546e-11        2.814e-11        
                   1.642e-11        4.538e-11        3.752e-09        
                    25.0000           1.0000         
   15.0000           0.6934          -0.5494           0.6934         
                    -0.5494         2.508e-11        3.480e-11        
                   1.919e-11        4.652e-11        1.563e-09        
                    25.0000           1.0000         
   16.0000           0.7896          -0.4510           0.7896         
                    -0.4510         3.588e-11        3.012e-11        
                   1.537e-11        6.086e-11        6.609e-09        
                    25.0000           1.0000         
   17.0000           0.7832          -0.3999           0.7832         
                    -0.3999         3.606e-11        2.496e-11        
                   1.396e-11        6.303e-11        2.269e-08        
                    25.0000           1.0000         
   18.0000           0.7623          -0.4385           0.7623         
                    -0.4385         3.291e-11        2.723e-11        
                   1.501e-11        5.569e-11        8.804e-09        
                    25.0000           1.0000         
   19.0000           0.7470          -0.5664           0.7470         
                    -0.5664         2.976e-11        3.654e-11        
                   2.009e-11        5.311e-11        1.259e-09        
                    25.0000           1.0000         
   20.0000           0.7525          -0.4709           0.7525         
                    -0.4709         3.137e-11        2.944e-11        
                   1.602e-11        5.224e-11        4.385e-09        
                    25.0000           1.0000         
